 &time_control
 run_days                            = 3,
 run_hours                           = 0,
 run_minutes                         = 0,
 run_seconds                         = 0,
 start_year                          = 2021, 2016, 2016,
 start_month                         = 07,   08,   08,
 start_day                           = 24,   01,   01,
 start_hour                          = 00,   00,   00,
 start_minute                        = 00,   00,   00,
 start_second                        = 00,   00,   00,
 end_year                            = 2021, 2016, 2016,
 end_month                           = 07,   08,   08,
 end_day                             = 27,   02,   02,
 end_hour                            = 00,   00,   0,
 end_minute                          = 00,   00,   00,
 end_second                          = 00,   00,   00,
 interval_seconds                    = 21600
 input_from_file                     = .true.,.true.,.true.,
 history_interval                    = 60, 120, 60,
 frames_per_outfile                  = 1, 1, 1,
 restart                             = .false.,
 restart_interval                    = 1440,
 io_form_history                     = 2,
 io_form_restart                     = 2,
 io_form_input                       = 2,
 io_form_boundary                    = 2,
 debug_level                         = 0,
 io_form_auxinput5                   = 2,
 force_use_old_data                  = T,
  /

 &domains
 eta_levels                          = 1.0000000, 0.9970000, 0.9939980, 0.990703, 0.987069,
                                       0.9830420, 0.9785620, 0.9735590, 0.967947, 0.961631,
                                       0.9544960, 0.9464080, 0.9372070, 0.926704, 0.914673,
                                       0.9008410, 0.8848780, 0.8663790, 0.844843, 0.819640,
                                       0.7916400, 0.7611400, 0.7290400, 0.688650, 0.646910,
                                       0.6066099, 0.5651600, 0.5230500, 0.480770, 0.438860,
                                       0.3978000, 0.3580500, 0.3200099, 0.284010, 0.250290,
                                       0.2190100, 0.1902600, 0.1640600, 0.140360, 0.119060,
                                       0.1000500, 0.0831600, 0.0682400, 0.055120, 0.043620,
                                       0.0335700, 0.0248200, 0.0172200, 0.010630, 0.004920,
                                       0.0000000,

 time_step                           = 30,
 time_step_fract_num                 = 0,
 time_step_fract_den                 = 1,
 max_dom                             = 1,
 e_we                                = 331,	406,	730,
 e_sn                                = 310, 	385,	703,
 e_vert                              = 51,    51,    51,
 p_top_requested                     = 5000,
 num_metgrid_levels                  = 34,
 num_metgrid_soil_levels             = 4,
 dx                                  = 9000, 6000,  2000,
 dy                                  = 9000, 6000,  2000,
 grid_id                             = 1,     2,     3,
 parent_id                           = 1,     1,     2,
 i_parent_start                      = 1,     38,    80,
 j_parent_start                      = 1,     40,    80,
 parent_grid_ratio                   = 1,     3,     3,
 parent_time_step_ratio              = 1,     3,     3,
 feedback                            = 1,
 smooth_option                       = 0, 
 smooth_cg_topo = .true
/

 &physics
 progn				                 = 0,     1,     1,
 mp_physics                          = 3,     3,     3,
 ra_lw_physics                       = 4,     4,     4,
 ra_sw_physics                       = 4,     4,     4,
 radt                                = 18,    18,    18,
 sf_sfclay_physics                   = 1,     1,     1,
 sf_surface_physics                  = 4,     4,     4,
 bl_pbl_physics                      = 1,     1,     1,
 bldt                                = 0,     0,     0,
 cu_physics                          = 3,     3,     0,
 cudt                                = 5,     5,     5,
 isfflx                              = 1,
 ifsnow                              = 1,
 icloud                              = 1,
 surface_input_source                = 1,
 num_soil_layers                     = 4,
 sf_urban_physics                    = 0,     0,     0,   
 num_land_cat			     = 24, 
/

 &fdda
 /

 &dynamics
 w_damping                           = 1,
 diff_opt                            = 1,
 km_opt                              = 4,
 diff_6th_opt                        = 0,      0,      0,
 diff_6th_factor                     = 0.12,   0.12,   0.12,
 base_temp                           = 290.
 damp_opt                            = 0,
 zdamp                               = 5000.,  5000.,  5000.,
 dampcoef                            = 0.2,    0.2,    0.2
 khdif                               = 0,      0,      0,
 kvdif                               = 0,      0,      0,
 non_hydrostatic                     = .true., .true., .true.,
 moist_adv_opt                       = 1,      1,      1,     
 scalar_adv_opt                      = 1,      1,      1,     
 /

 &bdy_control
 spec_bdy_width                      = 10,
 spec_zone                           = 1,
 relax_zone                          = 9,
 specified                           = .true., .false.,.false.,
 nested                              = .false., .true., .true.,
 /

 &grib2
 /

 &chem
 kemit                               = 8,
 chem_opt                            = 300, 300,
 bioemdt                             = 0,       0,
 photdt                              = 0,       0,
 chemdt                              = 0,      0.,
 io_style_emissions                  = 1,
 emiss_inpt_opt                      = 1,        1,
 emiss_opt                           = 6,        6,
 emiss_opt_vol                       = 0,          0,
 emiss_ash_hgt                       = 20000.,
 chem_in_opt                         = 0,        0,
 phot_opt                            = 0,        2,
 gas_drydep_opt                      = 1,          1,
 aer_drydep_opt                      = 1,          1,
 bio_emiss_opt                       = 0,          0,
 dust_opt                            = 1,
 dmsemis_opt                         = 0,
 seas_opt                            = 1,
 gas_bc_opt                          = 1,          0,
 gas_ic_opt                          = 1,          0,
 aer_bc_opt                          = 1,          0,
 aer_ic_opt                          = 1,          0,
 gaschem_onoff                       = 0,          0,
 aerchem_onoff                       = 1,          0,
 wetscav_onoff                       = 0,          0,
 cldchem_onoff                       = 0,          0,
 vertmix_onoff                       = 1,          0,
 chem_conv_tr                        = 1,          0,
 biomass_burn_opt                    = 0,          0,
 plumerisefire_frq                   = 0,         0,
 have_bcs_chem                       = .false., .false., .false.,
 aer_ra_feedback                     = 1,
 aer_op_opt                          = 1,
 opt_pars_out                        = 1,
 diagnostic_chem                     = 0,
 /

 &namelist_quilt
 nio_tasks_per_group = 0,
 nio_groups = 1,
 /

